omf/scratch/anonymization/randomNames/voltDump.csv
# voltDump.csv run at 2000-01-01 00:00:00 PST on 1010 nodes
node_name,voltA_real,voltA_imag,voltB_real,voltB_imag,voltC_real,voltC_imag
83,7200.000000,0.000000,-3600.000000,-6235.382907,-3600.000000,6235.382907
358,-59.968195,-103.961411,-59.968195,-103.961411,0.000000,0.000000
1425,120.156009,-0.087105,120.156009,-0.087105,0.000000,0.000000
1314,120.156009,-0.087105,120.156009,-0.087105,0.000000,0.000000
1618,-59.957691,-103.985755,-59.957691,-103.985755,0.000000,0.000000
319,-59.607923,104.050324,-59.607923,104.050324,0.000000,0.000000
1712,-59.954694,-103.995303,-59.954694,-103.995303,0.000000,0.000000
1252,120.216846,-0.126443,120.216846,-0.126443,0.000000,0.000000
1085,-59.532231,104.078893,-59.532231,104.078893,0.000000,0.000000
300,-59.521407,104.074675,-59.521407,104.074675,0.000000,0.000000
1267,-59.475641,104.089512,-59.475641,104.089512,0.000000,0.000000
1438,120.216307,-0.126808,120.216307,-0.126808,0.000000,0.000000
753,120.216196,-0.127357,120.216196,-0.127357,0.000000,0.000000
1292,120.216196,-0.127357,120.216196,-0.127357,0.000000,0.000000
887,120.215471,-0.127848,120.215471,-0.127848,0.000000,0.000000
1703,120.215471,-0.127848,120.215471,-0.127848,0.000000,0.000000
1588,120.215482,-0.127366,120.215482,-0.127366,0.000000,0.000000
1410,120.215455,-0.127383,120.215455,-0.127383,0.000000,0.000000
537,120.215090,-0.128106,120.215090,-0.128106,0.000000,0.000000
1260,120.215090,-0.128106,120.215090,-0.128106,0.000000,0.000000
732,120.215151,-0.127591,120.215151,-0.127591,0.000000,0.000000
565,120.214911,-0.127755,120.214911,-0.127755,0.000000,0.000000
893,120.214573,-0.128458,120.214573,-0.128458,0.000000,0.000000
683,120.214573,-0.128458,120.214573,-0.128458,0.000000,0.000000
785,120.214520,-0.128021,120.214520,-0.128021,0.000000,0.000000
1030,120.214350,-0.128609,120.214350,-0.128609,0.000000,0.000000
1568,120.214350,-0.128609,120.214350,-0.128609,0.000000,0.000000
205,120.214312,-0.128636,120.214312,-0.128636,0.000000,0.000000
1201,120.214312,-0.128636,120.214312,-0.128636,0.000000,0.000000
261,120.214411,-0.128094,120.214411,-0.128094,0.000000,0.000000
1423,120.214501,-0.128033,120.214501,-0.128033,0.000000,0.000000
257,120.215242,-0.127530,120.215242,-0.127530,0.000000,0.000000
1667,-59.949677,-104.015137,-59.949677,-104.015137,0.000000,0.000000
1589,-59.484027,104.096236,-59.484027,104.096236,0.000000,0.000000
1502,-59.486797,104.094247,-59.486797,104.094247,0.000000,0.000000
1195,-59.947971,-104.027905,-59.947971,-104.027905,0.000000,0.000000
309,120.257793,-0.155363,120.257793,-0.155363,0.000000,0.000000
160,120.257746,-0.155394,120.257746,-0.155394,0.000000,0.000000
743,120.257635,-0.155926,120.257635,-0.155926,0.000000,0.000000
795,120.257635,-0.155926,120.257635,-0.155926,0.000000,0.000000
137,120.261880,-0.176534,120.261880,-0.176534,0.000000,0.000000
1679,-59.948170,-104.035217,-59.948170,-104.035217,0.000000,0.000000
1697,-59.948170,-104.035217,-59.948170,-104.035217,0.000000,0.000000
899,-59.948170,-104.035217,-59.948170,-104.035217,0.000000,0.000000
538,120.298528,-0.185205,120.298528,-0.185205,0.000000,0.000000
674,120.298528,-0.185205,120.298528,-0.185205,0.000000,0.000000
981,-59.299306,104.174625,-59.299306,104.174625,0.000000,0.000000
363,-59.297022,104.174697,-59.297022,104.174697,0.000000,0.000000
855,-59.297022,104.174697,-59.297022,104.174697,0.000000,0.000000
1299,-59.291230,104.171933,-59.291230,104.171933,0.000000,0.000000
1206,-59.293490,104.171391,-59.293490,104.171391,0.000000,0.000000
822,-59.286700,104.176765,-59.286700,104.176765,0.000000,0.000000
1115,-59.945076,-104.084287,-59.945076,-104.084287,0.000000,0.000000
1514,120.388279,-0.251954,120.388279,-0.251954,0.000000,0.000000
404,-59.947690,-104.131970,-59.947690,-104.131970,0.000000,0.000000
1394,-59.947690,-104.131970,-59.947690,-104.131970,0.000000,0.000000
303,-59.947690,-104.131970,-59.947690,-104.131970,0.000000,0.000000
156,120.445565,-0.297461,120.445565,-0.297461,0.000000,0.000000
1511,120.444978,-0.297856,120.444978,-0.297856,0.000000,0.000000
1353,120.444829,-0.298429,120.444829,-0.298429,0.000000,0.000000
993,120.444829,-0.298429,120.444829,-0.298429,0.000000,0.000000
63,120.445047,-0.297808,120.445047,-0.297808,0.000000,0.000000
1021,120.445256,-0.297668,120.445256,-0.297668,0.000000,0.000000
736,120.445628,-0.297430,120.445628,-0.297430,0.000000,0.000000
1578,120.444496,-0.298651,120.444496,-0.298651,0.000000,0.000000
125,120.444496,-0.298651,120.444496,-0.298651,0.000000,0.000000
1457,120.444434,-0.298193,120.444434,-0.298193,0.000000,0.000000
286,120.444348,-0.298235,120.444348,-0.298235,0.000000,0.000000
850,120.444283,-0.298269,120.444283,-0.298269,0.000000,0.000000
163,120.444562,-0.298134,120.444562,-0.298134,0.000000,0.000000
723,120.444115,-0.298840,120.444115,-0.298840,0.000000,0.000000
1280,120.444115,-0.298840,120.444115,-0.298840,0.000000,0.000000
1435,120.443880,-0.298982,120.443880,-0.298982,0.000000,0.000000
72,120.443880,-0.298982,120.443880,-0.298982,0.000000,0.000000
338,120.443941,-0.298469,120.443941,-0.298469,0.000000,0.000000
443,120.444075,-0.298374,120.444075,-0.298374,0.000000,0.000000
602,120.444110,-0.298370,120.444110,-0.298370,0.000000,0.000000
1584,120.444969,-0.297861,120.444969,-0.297861,0.000000,0.000000
324,120.461532,-0.308552,120.461532,-0.308552,0.000000,0.000000
354,-59.947797,-104.154281,-59.947797,-104.154281,0.000000,0.000000
1384,-59.947797,-104.154281,-59.947797,-104.154281,0.000000,0.000000
165,-59.030734,104.305484,-59.030734,104.305484,0.000000,0.000000
57,120.526374,-0.357402,120.526374,-0.357402,0.000000,0.000000
448,-58.976433,104.328798,-58.976433,104.328798,0.000000,0.000000
1216,-58.976433,104.328798,-58.976433,104.328798,0.000000,0.000000
1329,-58.993769,104.321969,-58.993769,104.321969,0.000000,0.000000
1477,-58.978561,104.327407,-58.978561,104.327407,0.000000,0.000000
1318,120.592247,-0.391317,120.592247,-0.391317,0.000000,0.000000
464,120.592247,-0.391317,120.592247,-0.391317,0.000000,0.000000
1312,120.592201,-0.390854,120.592201,-0.390854,0.000000,0.000000
1100,120.591939,-0.391954,120.591939,-0.391954,0.000000,0.000000
157,120.591939,-0.391954,120.591939,-0.391954,0.000000,0.000000
1091,120.591939,-0.391954,120.591939,-0.391954,0.000000,0.000000
453,120.592057,-0.390925,120.592057,-0.390925,0.000000,0.000000
741,120.592026,-0.390940,120.592026,-0.390940,0.000000,0.000000
1107,-59.914577,-104.194388,-59.914577,-104.194388,0.000000,0.000000
463,-59.905825,-104.198602,-59.905825,-104.198602,0.000000,0.000000
552,-59.905825,-104.198602,-59.905825,-104.198602,0.000000,0.000000
693,-59.905825,-104.198602,-59.905825,-104.198602,0.000000,0.000000
1687,-58.694751,104.235946,-58.694751,104.235946,0.000000,0.000000
509,-58.694751,104.235946,-58.694751,104.235946,0.000000,0.000000
1400,-58.694751,104.235946,-58.694751,104.235946,0.000000,0.000000
1148,-58.730074,104.218122,-58.730074,104.218122,0.000000,0.000000
424,-58.691314,104.230727,-58.691314,104.230727,0.000000,0.000000
519,-58.691314,104.230727,-58.691314,104.230727,0.000000,0.000000
155,-58.691314,104.230727,-58.691314,104.230727,0.000000,0.000000
576,-58.691314,104.230727,-58.691314,104.230727,0.000000,0.000000
1543,-58.709957,104.223186,-58.709957,104.223186,0.000000,0.000000
1049,-58.709957,104.223186,-58.709957,104.223186,0.000000,0.000000
1210,120.600997,-0.399447,120.600997,-0.399447,0.000000,0.000000
1427,120.600997,-0.399447,120.600997,-0.399447,0.000000,0.000000
807,-59.902053,-104.200379,-59.902053,-104.200379,0.000000,0.000000
833,-59.902053,-104.200379,-59.902053,-104.200379,0.000000,0.000000
672,-59.901629,-104.200631,-59.901629,-104.200631,0.000000,0.000000
329,-59.901627,-104.200604,-59.901627,-104.200604,0.000000,0.000000
82,120.601932,-0.399594,120.601932,-0.399594,0.000000,0.000000
1658,-59.901097,-104.200751,-59.901097,-104.200751,0.000000,0.000000
1516,-59.901097,-104.200751,-59.901097,-104.200751,0.000000,0.000000
1450,120.602559,-0.400082,120.602559,-0.400082,0.000000,0.000000
549,-58.696859,104.223391,-58.696859,104.223391,0.000000,0.000000
305,-58.696859,104.223391,-58.696859,104.223391,0.000000,0.000000
484,-59.900565,-104.200978,-59.900565,-104.200978,0.000000,0.000000
1676,-59.900565,-104.200978,-59.900565,-104.200978,0.000000,0.000000
1078,-58.717819,104.218520,-58.717819,104.218520,0.000000,0.000000
514,-58.710042,104.225974,-58.710042,104.225974,0.000000,0.000000
763,120.598139,-0.397729,120.598139,-0.397729,0.000000,0.000000
505,120.598139,-0.397729,120.598139,-0.397729,0.000000,0.000000
1530,120.598139,-0.397729,120.598139,-0.397729,0.000000,0.000000
341,120.592322,-0.395993,120.592322,-0.395993,0.000000,0.000000
167,120.592322,-0.395993,120.592322,-0.395993,0.000000,0.000000
958,120.592322,-0.395993,120.592322,-0.395993,0.000000,0.000000
411,120.592378,-0.394996,120.592378,-0.394996,0.000000,0.000000
670,120.592029,-0.396626,120.592029,-0.396626,0.000000,0.000000
264,120.592029,-0.396626,120.592029,-0.396626,0.000000,0.000000
390,120.592029,-0.396626,120.592029,-0.396626,0.000000,0.000000
658,120.592029,-0.396626,120.592029,-0.396626,0.000000,0.000000
1163,120.592055,-0.396129,120.592055,-0.396129,0.000000,0.000000
1189,120.592055,-0.396129,120.592055,-0.396129,0.000000,0.000000
1523,120.592055,-0.396129,120.592055,-0.396129,0.000000,0.000000
1465,120.592205,-0.395084,120.592205,-0.395084,0.000000,0.000000
191,-59.910646,-104.196846,-59.910646,-104.196846,0.000000,0.000000
994,120.592713,-0.394891,120.592713,-0.394891,0.000000,0.000000
820,120.567898,-0.390665,120.567898,-0.390665,0.000000,0.000000
575,-59.951715,-104.203446,-59.951715,-104.203446,0.000000,0.000000
936,120.581167,-0.408761,120.581167,-0.408761,0.000000,0.000000
133,-58.904959,104.383672,-58.904959,104.383672,0.000000,0.000000
1420,-59.968112,-104.231143,-59.968112,-104.231143,0.000000,0.000000
79,-59.968112,-104.231143,-59.968112,-104.231143,0.000000,0.000000
967,120.526020,-0.644419,120.526020,-0.644419,0.000000,0.000000
682,-59.967709,-104.231273,-59.967709,-104.231273,0.000000,0.000000
664,-59.967712,-104.231240,-59.967712,-104.231240,0.000000,0.000000
481,-59.967711,-104.231249,-59.967711,-104.231249,0.000000,0.000000
1580,-59.965927,-104.225005,-59.965927,-104.225005,0.000000,0.000000
1587,-58.903393,104.381617,-58.903393,104.381617,0.000000,0.000000
1646,-58.903393,104.381617,-58.903393,104.381617,0.000000,0.000000
1504,-58.895306,104.377835,-58.895306,104.377835,0.000000,0.000000
728,-58.867912,104.383524,-58.867912,104.383524,0.000000,0.000000
808,-58.867912,104.383524,-58.867912,104.383524,0.000000,0.000000
742,-58.895657,104.375060,-58.895657,104.375060,0.000000,0.000000
499,-58.895657,104.375060,-58.895657,104.375060,0.000000,0.000000
764,7234.881845,-24.467618,-3597.883848,-6253.172811,-3535.880410,6262.528406
289,120.550518,-0.462127,120.550518,-0.462127,0.000000,0.000000
1655,-58.856222,104.302697,-58.856222,104.302697,0.000000,0.000000
862,-58.850705,104.299320,-58.850705,104.299320,0.000000,0.000000
1593,-58.838777,104.302847,-58.838777,104.302847,0.000000,0.000000
851,-58.838777,104.302847,-58.838777,104.302847,0.000000,0.000000
1077,-58.838777,104.302847,-58.838777,104.302847,0.000000,0.000000
1614,-58.838777,104.302847,-58.838777,104.302847,0.000000,0.000000
258,-58.838777,104.302847,-58.838777,104.302847,0.000000,0.000000
885,-58.838777,104.302847,-58.838777,104.302847,0.000000,0.000000
121,-58.838777,104.302847,-58.838777,104.302847,0.000000,0.000000
1171,-58.847353,104.299401,-58.847353,104.299401,0.000000,0.000000
701,-58.847353,104.299401,-58.847353,104.299401,0.000000,0.000000
14,-58.847353,104.299401,-58.847353,104.299401,0.000000,0.000000
749,-58.847353,104.299401,-58.847353,104.299401,0.000000,0.000000
471,-58.847353,104.299401,-58.847353,104.299401,0.000000,0.000000
1429,-58.849460,104.298687,-58.849460,104.298687,0.000000,0.000000
12,-58.786768,104.317399,-58.786768,104.317399,0.000000,0.000000
1533,-58.786768,104.317399,-58.786768,104.317399,0.000000,0.000000
1409,-58.786768,104.317399,-58.786768,104.317399,0.000000,0.000000
276,-58.786768,104.317399,-58.786768,104.317399,0.000000,0.000000
41,-58.845774,104.299297,-58.845774,104.299297,0.000000,0.000000
1466,-58.845774,104.299297,-58.845774,104.299297,0.000000,0.000000
925,-58.845774,104.299297,-58.845774,104.299297,0.000000,0.000000
450,-58.845774,104.299297,-58.845774,104.299297,0.000000,0.000000
1242,-58.845774,104.299297,-58.845774,104.299297,0.000000,0.000000
1131,-58.835011,104.301602,-58.835011,104.301602,0.000000,0.000000
1316,-58.835011,104.301602,-58.835011,104.301602,0.000000,0.000000
1341,-58.835011,104.301602,-58.835011,104.301602,0.000000,0.000000
417,-58.835011,104.301602,-58.835011,104.301602,0.000000,0.000000
1566,-58.835011,104.301602,-58.835011,104.301602,0.000000,0.000000
901,-58.835011,104.301602,-58.835011,104.301602,0.000000,0.000000
421,-58.835011,104.301602,-58.835011,104.301602,0.000000,0.000000
1308,-58.835011,104.301602,-58.835011,104.301602,0.000000,0.000000
912,-58.838442,104.318578,-58.838442,104.318578,0.000000,0.000000
112,-58.876694,104.335513,-58.876694,104.335513,0.000000,0.000000
91,-58.876694,104.335513,-58.876694,104.335513,0.000000,0.000000
698,-58.858810,104.328846,-58.858810,104.328846,0.000000,0.000000
476,-58.858810,104.328846,-58.858810,104.328846,0.000000,0.000000
115,-58.873581,104.323138,-58.873581,104.323138,0.000000,0.000000
...
